new loadshape.eletroposto1 npts=144 minterval=10
~ Pmult=(1.0135 1.0143 1.0188 1.0188 1.0227 1.0173 1.0223 1.0143 1.0120 1.0105 1.0116 1.0105 1.0135 1.0143 1.0188 1.0188 1.0227 1.0173 1.0223 1.0143 1.0120 1.0105 1.0116 1.0105 1.0135 1.0143 1.0188 1.0188 1.0227 1.0173 1.0223 1.0143 1.0120 1.0105 1.0116 1.0105 1.0135 1.0143 1.0188 1.0188 1.0227 1.0173 1.0223 1.0143 1.0120 1.0105 1.0116 1.0105 1.0135 1.0143 1.0188 1.0188 1.0227 1.0173 1.0223 1.0143 1.0120 1.0105 1.0116 1.0105 1.0135 1.0143 1.0188 1.0188 1.0227 1.0173 1.0223 1.0143 1.0120 1.0105 1.0116 1.0105 1.0135 1.0143 1.0188 1.0188 1.0227 1.0173 1.0223 1.0143 1.0120 1.0105 1.0116 1.0105 1.0135 1.0143 1.0188 1.0188 1.0227 1.0173 1.0223 1.0143 1.0120 1.0105 1.0116 1.0105 1.0135 1.0143 1.0188 1.0188 1.0227 1.0173 1.0223 1.0143 1.0120 1.0105 1.0116 1.0105 1.0135 1.0143 1.0188 1.0188 1.0227 1.0173 1.0223 1.0143 1.0120 1.0105 1.0116 1.0105 1.0135 1.0143 1.0188 1.0188 1.0227 1.0173 1.0223 1.0143 1.0120 1.0105 1.0116 1.0105 1.0135 1.0143 1.0188 1.0188 1.0227 1.0173 1.0223 1.0143 1.0120 1.0105 1.0116 1.0105)
~ Qmult=(-0.3951 1.0390 1.1073 1.1121 1.0292 1.1024 1.0585 0.9707 0.9365 0.9365 0.9756 1.0048 -0.3951 1.0390 1.1073 1.1121 1.0292 1.1024 1.0585 0.9707 0.9365 0.9365 0.9756 1.0048 -0.3951 1.0390 1.1073 1.1121 1.0292 1.1024 1.0585 0.9707 0.9365 0.9365 0.9756 1.0048 -0.3951 1.0390 1.1073 1.1121 1.0292 1.1024 1.0585 0.9707 0.9365 0.9365 0.9756 1.0048 -0.3951 1.0390 1.1073 1.1121 1.0292 1.1024 1.0585 0.9707 0.9365 0.9365 0.9756 1.0048 -0.3951 1.0390 1.1073 1.1121 1.0292 1.1024 1.0585 0.9707 0.9365 0.9365 0.9756 1.0048 -0.3951 1.0390 1.1073 1.1121 1.0292 1.1024 1.0585 0.9707 0.9365 0.9365 0.9756 1.0048 -0.3951 1.0390 1.1073 1.1121 1.0292 1.1024 1.0585 0.9707 0.9365 0.9365 0.9756 1.0048 -0.3951 1.0390 1.1073 1.1121 1.0292 1.1024 1.0585 0.9707 0.9365 0.9365 0.9756 1.0048 -0.3951 1.0390 1.1073 1.1121 1.0292 1.1024 1.0585 0.9707 0.9365 0.9365 0.9756 1.0048 -0.3951 1.0390 1.1073 1.1121 1.0292 1.1024 1.0585 0.9707 0.9365 0.9365 0.9756 1.0048 -0.3951 1.0390 1.1073 1.1121 1.0292 1.1024 1.0585 0.9707 0.9365 0.9365 0.9756 1.0048)

new loadshape.eletroposto2 npts=144 minterval=10
~ Pmult=(1.0135 1.0143 1.0188 1.0188 1.0227 1.0173 1.0223 1.0143 1.0120 1.0105 1.0116 1.0105 1.0135 1.0143 1.0188 1.0188 1.0227 1.0173 1.0223 1.0143 1.0120 1.0105 1.0116 1.0105 1.0135 1.0143 1.0188 1.0188 1.0227 1.0173 1.0223 1.0143 1.0120 1.0105 1.0116 1.0105 1.0135 1.0143 1.0188 1.0188 1.0227 1.0173 1.0223 1.0143 1.0120 1.0105 1.0116 1.0105 1.0135 1.0143 1.0188 1.0188 1.0227 1.0173 1.0223 1.0143 1.0120 1.0105 1.0116 1.0105 1.0135 1.0143 1.0188 1.0188 1.0227 1.0173 1.0223 1.0143 1.0120 1.0105 1.0116 1.0105 1.0135 1.0143 1.0188 1.0188 1.0227 1.0173 1.0223 1.0143 1.0120 1.0105 1.0116 1.0105 1.0135 1.0143 1.0188 1.0188 1.0227 1.0173 1.0223 1.0143 1.0120 1.0105 1.0116 1.0105 1.0135 1.0143 1.0188 1.0188 1.0227 1.0173 1.0223 1.0143 1.0120 1.0105 1.0116 1.0105 1.0135 1.0143 1.0188 1.0188 1.0227 1.0173 1.0223 1.0143 1.0120 1.0105 1.0116 1.0105 1.0135 1.0143 1.0188 1.0188 1.0227 1.0173 1.0223 1.0143 1.0120 1.0105 1.0116 1.0105 1.0135 1.0143 1.0188 1.0188 1.0227 1.0173 1.0223 1.0143 1.0120 1.0105 1.0116 1.0105)
~ Qmult=(-0.3951 1.0390 1.1073 1.1121 1.0292 1.1024 1.0585 0.9707 0.9365 0.9365 0.9756 1.0048 -0.3951 1.0390 1.1073 1.1121 1.0292 1.1024 1.0585 0.9707 0.9365 0.9365 0.9756 1.0048 -0.3951 1.0390 1.1073 1.1121 1.0292 1.1024 1.0585 0.9707 0.9365 0.9365 0.9756 1.0048 -0.3951 1.0390 1.1073 1.1121 1.0292 1.1024 1.0585 0.9707 0.9365 0.9365 0.9756 1.0048 -0.3951 1.0390 1.1073 1.1121 1.0292 1.1024 1.0585 0.9707 0.9365 0.9365 0.9756 1.0048 -0.3951 1.0390 1.1073 1.1121 1.0292 1.1024 1.0585 0.9707 0.9365 0.9365 0.9756 1.0048 -0.3951 1.0390 1.1073 1.1121 1.0292 1.1024 1.0585 0.9707 0.9365 0.9365 0.9756 1.0048 -0.3951 1.0390 1.1073 1.1121 1.0292 1.1024 1.0585 0.9707 0.9365 0.9365 0.9756 1.0048 -0.3951 1.0390 1.1073 1.1121 1.0292 1.1024 1.0585 0.9707 0.9365 0.9365 0.9756 1.0048 -0.3951 1.0390 1.1073 1.1121 1.0292 1.1024 1.0585 0.9707 0.9365 0.9365 0.9756 1.0048 -0.3951 1.0390 1.1073 1.1121 1.0292 1.1024 1.0585 0.9707 0.9365 0.9365 0.9756 1.0048 -0.3951 1.0390 1.1073 1.1121 1.0292 1.1024 1.0585 0.9707 0.9365 0.9365 0.9756 1.0048)

new loadshape.eletroposto3 npts=144 minterval=10
~ Pmult=(1.0135 1.0143 1.0188 1.0188 1.0227 1.0173 1.0223 1.0143 1.0120 1.0105 1.0116 1.0105 1.0135 1.0143 1.0188 1.0188 1.0227 1.0173 1.0223 1.0143 1.0120 1.0105 1.0116 1.0105 1.0135 1.0143 1.0188 1.0188 1.0227 1.0173 1.0223 1.0143 1.0120 1.0105 1.0116 1.0105 1.0135 1.0143 1.0188 1.0188 1.0227 1.0173 1.0223 1.0143 1.0120 1.0105 1.0116 1.0105 1.0135 1.0143 1.0188 1.0188 1.0227 1.0173 1.0223 1.0143 1.0120 1.0105 1.0116 1.0105 1.0135 1.0143 1.0188 1.0188 1.0227 1.0173 1.0223 1.0143 1.0120 1.0105 1.0116 1.0105 1.0135 1.0143 1.0188 1.0188 1.0227 1.0173 1.0223 1.0143 1.0120 1.0105 1.0116 1.0105 1.0135 1.0143 1.0188 1.0188 1.0227 1.0173 1.0223 1.0143 1.0120 1.0105 1.0116 1.0105 1.0135 1.0143 1.0188 1.0188 1.0227 1.0173 1.0223 1.0143 1.0120 1.0105 1.0116 1.0105 1.0135 1.0143 1.0188 1.0188 1.0227 1.0173 1.0223 1.0143 1.0120 1.0105 1.0116 1.0105 1.0135 1.0143 1.0188 1.0188 1.0227 1.0173 1.0223 1.0143 1.0120 1.0105 1.0116 1.0105 1.0135 1.0143 1.0188 1.0188 1.0227 1.0173 1.0223 1.0143 1.0120 1.0105 1.0116 1.0105)
~ Qmult=(-0.3951 1.0390 1.1073 1.1121 1.0292 1.1024 1.0585 0.9707 0.9365 0.9365 0.9756 1.0048 -0.3951 1.0390 1.1073 1.1121 1.0292 1.1024 1.0585 0.9707 0.9365 0.9365 0.9756 1.0048 -0.3951 1.0390 1.1073 1.1121 1.0292 1.1024 1.0585 0.9707 0.9365 0.9365 0.9756 1.0048 -0.3951 1.0390 1.1073 1.1121 1.0292 1.1024 1.0585 0.9707 0.9365 0.9365 0.9756 1.0048 -0.3951 1.0390 1.1073 1.1121 1.0292 1.1024 1.0585 0.9707 0.9365 0.9365 0.9756 1.0048 -0.3951 1.0390 1.1073 1.1121 1.0292 1.1024 1.0585 0.9707 0.9365 0.9365 0.9756 1.0048 -0.3951 1.0390 1.1073 1.1121 1.0292 1.1024 1.0585 0.9707 0.9365 0.9365 0.9756 1.0048 -0.3951 1.0390 1.1073 1.1121 1.0292 1.1024 1.0585 0.9707 0.9365 0.9365 0.9756 1.0048 -0.3951 1.0390 1.1073 1.1121 1.0292 1.1024 1.0585 0.9707 0.9365 0.9365 0.9756 1.0048 -0.3951 1.0390 1.1073 1.1121 1.0292 1.1024 1.0585 0.9707 0.9365 0.9365 0.9756 1.0048 -0.3951 1.0390 1.1073 1.1121 1.0292 1.1024 1.0585 0.9707 0.9365 0.9365 0.9756 1.0048 -0.3951 1.0390 1.1073 1.1121 1.0292 1.1024 1.0585 0.9707 0.9365 0.9365 0.9756 1.0048)

new loadshape.eletroposto4 npts=144 minterval=10
~ Pmult=(1.0135 1.0143 1.0188 1.0188 1.0227 1.0173 1.0223 1.0143 1.0120 1.0105 1.0116 1.0105 1.0135 1.0143 1.0188 1.0188 1.0227 1.0173 1.0223 1.0143 1.0120 1.0105 1.0116 1.0105 1.0135 1.0143 1.0188 1.0188 1.0227 1.0173 1.0223 1.0143 1.0120 1.0105 1.0116 1.0105 1.0135 1.0143 1.0188 1.0188 1.0227 1.0173 1.0223 1.0143 1.0120 1.0105 1.0116 1.0105 1.0135 1.0143 1.0188 1.0188 1.0227 1.0173 1.0223 1.0143 1.0120 1.0105 1.0116 1.0105 1.0135 1.0143 1.0188 1.0188 1.0227 1.0173 1.0223 1.0143 1.0120 1.0105 1.0116 1.0105 1.0135 1.0143 1.0188 1.0188 1.0227 1.0173 1.0223 1.0143 1.0120 1.0105 1.0116 1.0105 1.0135 1.0143 1.0188 1.0188 1.0227 1.0173 1.0223 1.0143 1.0120 1.0105 1.0116 1.0105 1.0135 1.0143 1.0188 1.0188 1.0227 1.0173 1.0223 1.0143 1.0120 1.0105 1.0116 1.0105 1.0135 1.0143 1.0188 1.0188 1.0227 1.0173 1.0223 1.0143 1.0120 1.0105 1.0116 1.0105 1.0135 1.0143 1.0188 1.0188 1.0227 1.0173 1.0223 1.0143 1.0120 1.0105 1.0116 1.0105 1.0135 1.0143 1.0188 1.0188 1.0227 1.0173 1.0223 1.0143 1.0120 1.0105 1.0116 1.0105)
~ Qmult=(-0.3951 1.0390 1.1073 1.1121 1.0292 1.1024 1.0585 0.9707 0.9365 0.9365 0.9756 1.0048 -0.3951 1.0390 1.1073 1.1121 1.0292 1.1024 1.0585 0.9707 0.9365 0.9365 0.9756 1.0048 -0.3951 1.0390 1.1073 1.1121 1.0292 1.1024 1.0585 0.9707 0.9365 0.9365 0.9756 1.0048 -0.3951 1.0390 1.1073 1.1121 1.0292 1.1024 1.0585 0.9707 0.9365 0.9365 0.9756 1.0048 -0.3951 1.0390 1.1073 1.1121 1.0292 1.1024 1.0585 0.9707 0.9365 0.9365 0.9756 1.0048 -0.3951 1.0390 1.1073 1.1121 1.0292 1.1024 1.0585 0.9707 0.9365 0.9365 0.9756 1.0048 -0.3951 1.0390 1.1073 1.1121 1.0292 1.1024 1.0585 0.9707 0.9365 0.9365 0.9756 1.0048 -0.3951 1.0390 1.1073 1.1121 1.0292 1.1024 1.0585 0.9707 0.9365 0.9365 0.9756 1.0048 -0.3951 1.0390 1.1073 1.1121 1.0292 1.1024 1.0585 0.9707 0.9365 0.9365 0.9756 1.0048 -0.3951 1.0390 1.1073 1.1121 1.0292 1.1024 1.0585 0.9707 0.9365 0.9365 0.9756 1.0048 -0.3951 1.0390 1.1073 1.1121 1.0292 1.1024 1.0585 0.9707 0.9365 0.9365 0.9756 1.0048 -0.3951 1.0390 1.1073 1.1121 1.0292 1.1024 1.0585 0.9707 0.9365 0.9365 0.9756 1.0048)

new loadshape.eletroposto5 npts=144 minterval=10
~ Pmult=(1.0135 1.0143 1.0188 1.0188 1.0227 1.0173 1.0223 1.0143 1.0120 1.0105 1.0116 1.0105 1.0135 1.0143 1.0188 1.0188 1.0227 1.0173 1.0223 1.0143 1.0120 1.0105 1.0116 1.0105 1.0135 1.0143 1.0188 1.0188 1.0227 1.0173 1.0223 1.0143 1.0120 1.0105 1.0116 1.0105 1.0135 1.0143 1.0188 1.0188 1.0227 1.0173 1.0223 1.0143 1.0120 1.0105 1.0116 1.0105 1.0135 1.0143 1.0188 1.0188 1.0227 1.0173 1.0223 1.0143 1.0120 1.0105 1.0116 1.0105 1.0135 1.0143 1.0188 1.0188 1.0227 1.0173 1.0223 1.0143 1.0120 1.0105 1.0116 1.0105 1.0135 1.0143 1.0188 1.0188 1.0227 1.0173 1.0223 1.0143 1.0120 1.0105 1.0116 1.0105 1.0135 1.0143 1.0188 1.0188 1.0227 1.0173 1.0223 1.0143 1.0120 1.0105 1.0116 1.0105 1.0135 1.0143 1.0188 1.0188 1.0227 1.0173 1.0223 1.0143 1.0120 1.0105 1.0116 1.0105 1.0135 1.0143 1.0188 1.0188 1.0227 1.0173 1.0223 1.0143 1.0120 1.0105 1.0116 1.0105 1.0135 1.0143 1.0188 1.0188 1.0227 1.0173 1.0223 1.0143 1.0120 1.0105 1.0116 1.0105 1.0135 1.0143 1.0188 1.0188 1.0227 1.0173 1.0223 1.0143 1.0120 1.0105 1.0116 1.0105)
~ Qmult=(-0.3951 1.0390 1.1073 1.1121 1.0292 1.1024 1.0585 0.9707 0.9365 0.9365 0.9756 1.0048 -0.3951 1.0390 1.1073 1.1121 1.0292 1.1024 1.0585 0.9707 0.9365 0.9365 0.9756 1.0048 -0.3951 1.0390 1.1073 1.1121 1.0292 1.1024 1.0585 0.9707 0.9365 0.9365 0.9756 1.0048 -0.3951 1.0390 1.1073 1.1121 1.0292 1.1024 1.0585 0.9707 0.9365 0.9365 0.9756 1.0048 -0.3951 1.0390 1.1073 1.1121 1.0292 1.1024 1.0585 0.9707 0.9365 0.9365 0.9756 1.0048 -0.3951 1.0390 1.1073 1.1121 1.0292 1.1024 1.0585 0.9707 0.9365 0.9365 0.9756 1.0048 -0.3951 1.0390 1.1073 1.1121 1.0292 1.1024 1.0585 0.9707 0.9365 0.9365 0.9756 1.0048 -0.3951 1.0390 1.1073 1.1121 1.0292 1.1024 1.0585 0.9707 0.9365 0.9365 0.9756 1.0048 -0.3951 1.0390 1.1073 1.1121 1.0292 1.1024 1.0585 0.9707 0.9365 0.9365 0.9756 1.0048 -0.3951 1.0390 1.1073 1.1121 1.0292 1.1024 1.0585 0.9707 0.9365 0.9365 0.9756 1.0048 -0.3951 1.0390 1.1073 1.1121 1.0292 1.1024 1.0585 0.9707 0.9365 0.9365 0.9756 1.0048 -0.3951 1.0390 1.1073 1.1121 1.0292 1.1024 1.0585 0.9707 0.9365 0.9365 0.9756 1.0048)

new loadshape.eletroposto6 npts=144 minterval=10
~ Pmult=(1.0135 1.0143 1.0188 1.0188 1.0227 1.0173 1.0223 1.0143 1.0120 1.0105 1.0116 1.0105 1.0135 1.0143 1.0188 1.0188 1.0227 1.0173 1.0223 1.0143 1.0120 1.0105 1.0116 1.0105 1.0135 1.0143 1.0188 1.0188 1.0227 1.0173 1.0223 1.0143 1.0120 1.0105 1.0116 1.0105 1.0135 1.0143 1.0188 1.0188 1.0227 1.0173 1.0223 1.0143 1.0120 1.0105 1.0116 1.0105 1.0135 1.0143 1.0188 1.0188 1.0227 1.0173 1.0223 1.0143 1.0120 1.0105 1.0116 1.0105 1.0135 1.0143 1.0188 1.0188 1.0227 1.0173 1.0223 1.0143 1.0120 1.0105 1.0116 1.0105 1.0135 1.0143 1.0188 1.0188 1.0227 1.0173 1.0223 1.0143 1.0120 1.0105 1.0116 1.0105 1.0135 1.0143 1.0188 1.0188 1.0227 1.0173 1.0223 1.0143 1.0120 1.0105 1.0116 1.0105 1.0135 1.0143 1.0188 1.0188 1.0227 1.0173 1.0223 1.0143 1.0120 1.0105 1.0116 1.0105 1.0135 1.0143 1.0188 1.0188 1.0227 1.0173 1.0223 1.0143 1.0120 1.0105 1.0116 1.0105 1.0135 1.0143 1.0188 1.0188 1.0227 1.0173 1.0223 1.0143 1.0120 1.0105 1.0116 1.0105 1.0135 1.0143 1.0188 1.0188 1.0227 1.0173 1.0223 1.0143 1.0120 1.0105 1.0116 1.0105)
~ Qmult=(-0.3951 1.0390 1.1073 1.1121 1.0292 1.1024 1.0585 0.9707 0.9365 0.9365 0.9756 1.0048 -0.3951 1.0390 1.1073 1.1121 1.0292 1.1024 1.0585 0.9707 0.9365 0.9365 0.9756 1.0048 -0.3951 1.0390 1.1073 1.1121 1.0292 1.1024 1.0585 0.9707 0.9365 0.9365 0.9756 1.0048 -0.3951 1.0390 1.1073 1.1121 1.0292 1.1024 1.0585 0.9707 0.9365 0.9365 0.9756 1.0048 -0.3951 1.0390 1.1073 1.1121 1.0292 1.1024 1.0585 0.9707 0.9365 0.9365 0.9756 1.0048 -0.3951 1.0390 1.1073 1.1121 1.0292 1.1024 1.0585 0.9707 0.9365 0.9365 0.9756 1.0048 -0.3951 1.0390 1.1073 1.1121 1.0292 1.1024 1.0585 0.9707 0.9365 0.9365 0.9756 1.0048 -0.3951 1.0390 1.1073 1.1121 1.0292 1.1024 1.0585 0.9707 0.9365 0.9365 0.9756 1.0048 -0.3951 1.0390 1.1073 1.1121 1.0292 1.1024 1.0585 0.9707 0.9365 0.9365 0.9756 1.0048 -0.3951 1.0390 1.1073 1.1121 1.0292 1.1024 1.0585 0.9707 0.9365 0.9365 0.9756 1.0048 -0.3951 1.0390 1.1073 1.1121 1.0292 1.1024 1.0585 0.9707 0.9365 0.9365 0.9756 1.0048 -0.3951 1.0390 1.1073 1.1121 1.0292 1.1024 1.0585 0.9707 0.9365 0.9365 0.9756 1.0048)

new loadshape.eletroposto7 npts=144 minterval=10
~ Pmult=(1.0135 1.0143 1.0188 1.0188 1.0227 1.0173 1.0223 1.0143 1.0120 1.0105 1.0116 1.0105 1.0135 1.0143 1.0188 1.0188 1.0227 1.0173 1.0223 1.0143 1.0120 1.0105 1.0116 1.0105 1.0135 1.0143 1.0188 1.0188 1.0227 1.0173 1.0223 1.0143 1.0120 1.0105 1.0116 1.0105 1.0135 1.0143 1.0188 1.0188 1.0227 1.0173 1.0223 1.0143 1.0120 1.0105 1.0116 1.0105 1.0135 1.0143 1.0188 1.0188 1.0227 1.0173 1.0223 1.0143 1.0120 1.0105 1.0116 1.0105 1.0135 1.0143 1.0188 1.0188 1.0227 1.0173 1.0223 1.0143 1.0120 1.0105 1.0116 1.0105 1.0135 1.0143 1.0188 1.0188 1.0227 1.0173 1.0223 1.0143 1.0120 1.0105 1.0116 1.0105 1.0135 1.0143 1.0188 1.0188 1.0227 1.0173 1.0223 1.0143 1.0120 1.0105 1.0116 1.0105 1.0135 1.0143 1.0188 1.0188 1.0227 1.0173 1.0223 1.0143 1.0120 1.0105 1.0116 1.0105 1.0135 1.0143 1.0188 1.0188 1.0227 1.0173 1.0223 1.0143 1.0120 1.0105 1.0116 1.0105 1.0135 1.0143 1.0188 1.0188 1.0227 1.0173 1.0223 1.0143 1.0120 1.0105 1.0116 1.0105 1.0135 1.0143 1.0188 1.0188 1.0227 1.0173 1.0223 1.0143 1.0120 1.0105 1.0116 1.0105)
~ Qmult=(-0.3951 1.0390 1.1073 1.1121 1.0292 1.1024 1.0585 0.9707 0.9365 0.9365 0.9756 1.0048 -0.3951 1.0390 1.1073 1.1121 1.0292 1.1024 1.0585 0.9707 0.9365 0.9365 0.9756 1.0048 -0.3951 1.0390 1.1073 1.1121 1.0292 1.1024 1.0585 0.9707 0.9365 0.9365 0.9756 1.0048 -0.3951 1.0390 1.1073 1.1121 1.0292 1.1024 1.0585 0.9707 0.9365 0.9365 0.9756 1.0048 -0.3951 1.0390 1.1073 1.1121 1.0292 1.1024 1.0585 0.9707 0.9365 0.9365 0.9756 1.0048 -0.3951 1.0390 1.1073 1.1121 1.0292 1.1024 1.0585 0.9707 0.9365 0.9365 0.9756 1.0048 -0.3951 1.0390 1.1073 1.1121 1.0292 1.1024 1.0585 0.9707 0.9365 0.9365 0.9756 1.0048 -0.3951 1.0390 1.1073 1.1121 1.0292 1.1024 1.0585 0.9707 0.9365 0.9365 0.9756 1.0048 -0.3951 1.0390 1.1073 1.1121 1.0292 1.1024 1.0585 0.9707 0.9365 0.9365 0.9756 1.0048 -0.3951 1.0390 1.1073 1.1121 1.0292 1.1024 1.0585 0.9707 0.9365 0.9365 0.9756 1.0048 -0.3951 1.0390 1.1073 1.1121 1.0292 1.1024 1.0585 0.9707 0.9365 0.9365 0.9756 1.0048 -0.3951 1.0390 1.1073 1.1121 1.0292 1.1024 1.0585 0.9707 0.9365 0.9365 0.9756 1.0048)

new loadshape.eletroposto8 npts=144 minterval=10
~ Pmult=(1.0135 1.0143 1.0188 1.0188 1.0227 1.0173 1.0223 1.0143 1.0120 1.0105 1.0116 1.0105 1.0135 1.0143 1.0188 1.0188 1.0227 1.0173 1.0223 1.0143 1.0120 1.0105 1.0116 1.0105 1.0135 1.0143 1.0188 1.0188 1.0227 1.0173 1.0223 1.0143 1.0120 1.0105 1.0116 1.0105 1.0135 1.0143 1.0188 1.0188 1.0227 1.0173 1.0223 1.0143 1.0120 1.0105 1.0116 1.0105 1.0135 1.0143 1.0188 1.0188 1.0227 1.0173 1.0223 1.0143 1.0120 1.0105 1.0116 1.0105 1.0135 1.0143 1.0188 1.0188 1.0227 1.0173 1.0223 1.0143 1.0120 1.0105 1.0116 1.0105 1.0135 1.0143 1.0188 1.0188 1.0227 1.0173 1.0223 1.0143 1.0120 1.0105 1.0116 1.0105 1.0135 1.0143 1.0188 1.0188 1.0227 1.0173 1.0223 1.0143 1.0120 1.0105 1.0116 1.0105 1.0135 1.0143 1.0188 1.0188 1.0227 1.0173 1.0223 1.0143 1.0120 1.0105 1.0116 1.0105 1.0135 1.0143 1.0188 1.0188 1.0227 1.0173 1.0223 1.0143 1.0120 1.0105 1.0116 1.0105 1.0135 1.0143 1.0188 1.0188 1.0227 1.0173 1.0223 1.0143 1.0120 1.0105 1.0116 1.0105 1.0135 1.0143 1.0188 1.0188 1.0227 1.0173 1.0223 1.0143 1.0120 1.0105 1.0116 1.0105)
~ Qmult=(-0.3951 1.0390 1.1073 1.1121 1.0292 1.1024 1.0585 0.9707 0.9365 0.9365 0.9756 1.0048 -0.3951 1.0390 1.1073 1.1121 1.0292 1.1024 1.0585 0.9707 0.9365 0.9365 0.9756 1.0048 -0.3951 1.0390 1.1073 1.1121 1.0292 1.1024 1.0585 0.9707 0.9365 0.9365 0.9756 1.0048 -0.3951 1.0390 1.1073 1.1121 1.0292 1.1024 1.0585 0.9707 0.9365 0.9365 0.9756 1.0048 -0.3951 1.0390 1.1073 1.1121 1.0292 1.1024 1.0585 0.9707 0.9365 0.9365 0.9756 1.0048 -0.3951 1.0390 1.1073 1.1121 1.0292 1.1024 1.0585 0.9707 0.9365 0.9365 0.9756 1.0048 -0.3951 1.0390 1.1073 1.1121 1.0292 1.1024 1.0585 0.9707 0.9365 0.9365 0.9756 1.0048 -0.3951 1.0390 1.1073 1.1121 1.0292 1.1024 1.0585 0.9707 0.9365 0.9365 0.9756 1.0048 -0.3951 1.0390 1.1073 1.1121 1.0292 1.1024 1.0585 0.9707 0.9365 0.9365 0.9756 1.0048 -0.3951 1.0390 1.1073 1.1121 1.0292 1.1024 1.0585 0.9707 0.9365 0.9365 0.9756 1.0048 -0.3951 1.0390 1.1073 1.1121 1.0292 1.1024 1.0585 0.9707 0.9365 0.9365 0.9756 1.0048 -0.3951 1.0390 1.1073 1.1121 1.0292 1.1024 1.0585 0.9707 0.9365 0.9365 0.9756 1.0048)

new loadshape.eletroposto9 npts=144 minterval=10
~ Pmult=(1.0135 1.0143 1.0188 1.0188 1.0227 1.0173 1.0223 1.0143 1.0120 1.0105 1.0116 1.0105 1.0135 1.0143 1.0188 1.0188 1.0227 1.0173 1.0223 1.0143 1.0120 1.0105 1.0116 1.0105 1.0135 1.0143 1.0188 1.0188 1.0227 1.0173 1.0223 1.0143 1.0120 1.0105 1.0116 1.0105 1.0135 1.0143 1.0188 1.0188 1.0227 1.0173 1.0223 1.0143 1.0120 1.0105 1.0116 1.0105 1.0135 1.0143 1.0188 1.0188 1.0227 1.0173 1.0223 1.0143 1.0120 1.0105 1.0116 1.0105 1.0135 1.0143 1.0188 1.0188 1.0227 1.0173 1.0223 1.0143 1.0120 1.0105 1.0116 1.0105 1.0135 1.0143 1.0188 1.0188 1.0227 1.0173 1.0223 1.0143 1.0120 1.0105 1.0116 1.0105 1.0135 1.0143 1.0188 1.0188 1.0227 1.0173 1.0223 1.0143 1.0120 1.0105 1.0116 1.0105 1.0135 1.0143 1.0188 1.0188 1.0227 1.0173 1.0223 1.0143 1.0120 1.0105 1.0116 1.0105 1.0135 1.0143 1.0188 1.0188 1.0227 1.0173 1.0223 1.0143 1.0120 1.0105 1.0116 1.0105 1.0135 1.0143 1.0188 1.0188 1.0227 1.0173 1.0223 1.0143 1.0120 1.0105 1.0116 1.0105 1.0135 1.0143 1.0188 1.0188 1.0227 1.0173 1.0223 1.0143 1.0120 1.0105 1.0116 1.0105)
~ Qmult=(-0.3951 1.0390 1.1073 1.1121 1.0292 1.1024 1.0585 0.9707 0.9365 0.9365 0.9756 1.0048 -0.3951 1.0390 1.1073 1.1121 1.0292 1.1024 1.0585 0.9707 0.9365 0.9365 0.9756 1.0048 -0.3951 1.0390 1.1073 1.1121 1.0292 1.1024 1.0585 0.9707 0.9365 0.9365 0.9756 1.0048 -0.3951 1.0390 1.1073 1.1121 1.0292 1.1024 1.0585 0.9707 0.9365 0.9365 0.9756 1.0048 -0.3951 1.0390 1.1073 1.1121 1.0292 1.1024 1.0585 0.9707 0.9365 0.9365 0.9756 1.0048 -0.3951 1.0390 1.1073 1.1121 1.0292 1.1024 1.0585 0.9707 0.9365 0.9365 0.9756 1.0048 -0.3951 1.0390 1.1073 1.1121 1.0292 1.1024 1.0585 0.9707 0.9365 0.9365 0.9756 1.0048 -0.3951 1.0390 1.1073 1.1121 1.0292 1.1024 1.0585 0.9707 0.9365 0.9365 0.9756 1.0048 -0.3951 1.0390 1.1073 1.1121 1.0292 1.1024 1.0585 0.9707 0.9365 0.9365 0.9756 1.0048 -0.3951 1.0390 1.1073 1.1121 1.0292 1.1024 1.0585 0.9707 0.9365 0.9365 0.9756 1.0048 -0.3951 1.0390 1.1073 1.1121 1.0292 1.1024 1.0585 0.9707 0.9365 0.9365 0.9756 1.0048 -0.3951 1.0390 1.1073 1.1121 1.0292 1.1024 1.0585 0.9707 0.9365 0.9365 0.9756 1.0048)

new loadshape.eletroposto10 npts=144 minterval=10
~ Pmult=(1.0135 1.0143 1.0188 1.0188 1.0227 1.0173 1.0223 1.0143 1.0120 1.0105 1.0116 1.0105 1.0135 1.0143 1.0188 1.0188 1.0227 1.0173 1.0223 1.0143 1.0120 1.0105 1.0116 1.0105 1.0135 1.0143 1.0188 1.0188 1.0227 1.0173 1.0223 1.0143 1.0120 1.0105 1.0116 1.0105 1.0135 1.0143 1.0188 1.0188 1.0227 1.0173 1.0223 1.0143 1.0120 1.0105 1.0116 1.0105 1.0135 1.0143 1.0188 1.0188 1.0227 1.0173 1.0223 1.0143 1.0120 1.0105 1.0116 1.0105 1.0135 1.0143 1.0188 1.0188 1.0227 1.0173 1.0223 1.0143 1.0120 1.0105 1.0116 1.0105 1.0135 1.0143 1.0188 1.0188 1.0227 1.0173 1.0223 1.0143 1.0120 1.0105 1.0116 1.0105 1.0135 1.0143 1.0188 1.0188 1.0227 1.0173 1.0223 1.0143 1.0120 1.0105 1.0116 1.0105 1.0135 1.0143 1.0188 1.0188 1.0227 1.0173 1.0223 1.0143 1.0120 1.0105 1.0116 1.0105 1.0135 1.0143 1.0188 1.0188 1.0227 1.0173 1.0223 1.0143 1.0120 1.0105 1.0116 1.0105 1.0135 1.0143 1.0188 1.0188 1.0227 1.0173 1.0223 1.0143 1.0120 1.0105 1.0116 1.0105 1.0135 1.0143 1.0188 1.0188 1.0227 1.0173 1.0223 1.0143 1.0120 1.0105 1.0116 1.0105)
~ Qmult=(-0.3951 1.0390 1.1073 1.1121 1.0292 1.1024 1.0585 0.9707 0.9365 0.9365 0.9756 1.0048 -0.3951 1.0390 1.1073 1.1121 1.0292 1.1024 1.0585 0.9707 0.9365 0.9365 0.9756 1.0048 -0.3951 1.0390 1.1073 1.1121 1.0292 1.1024 1.0585 0.9707 0.9365 0.9365 0.9756 1.0048 -0.3951 1.0390 1.1073 1.1121 1.0292 1.1024 1.0585 0.9707 0.9365 0.9365 0.9756 1.0048 -0.3951 1.0390 1.1073 1.1121 1.0292 1.1024 1.0585 0.9707 0.9365 0.9365 0.9756 1.0048 -0.3951 1.0390 1.1073 1.1121 1.0292 1.1024 1.0585 0.9707 0.9365 0.9365 0.9756 1.0048 -0.3951 1.0390 1.1073 1.1121 1.0292 1.1024 1.0585 0.9707 0.9365 0.9365 0.9756 1.0048 -0.3951 1.0390 1.1073 1.1121 1.0292 1.1024 1.0585 0.9707 0.9365 0.9365 0.9756 1.0048 -0.3951 1.0390 1.1073 1.1121 1.0292 1.1024 1.0585 0.9707 0.9365 0.9365 0.9756 1.0048 -0.3951 1.0390 1.1073 1.1121 1.0292 1.1024 1.0585 0.9707 0.9365 0.9365 0.9756 1.0048 -0.3951 1.0390 1.1073 1.1121 1.0292 1.1024 1.0585 0.9707 0.9365 0.9365 0.9756 1.0048 -0.3951 1.0390 1.1073 1.1121 1.0292 1.1024 1.0585 0.9707 0.9365 0.9365 0.9756 1.0048)

new loadshape.eletroposto11 npts=144 minterval=10
~ Pmult=(1.0135 1.0143 1.0188 1.0188 1.0227 1.0173 1.0223 1.0143 1.0120 1.0105 1.0116 1.0105 1.0135 1.0143 1.0188 1.0188 1.0227 1.0173 1.0223 1.0143 1.0120 1.0105 1.0116 1.0105 1.0135 1.0143 1.0188 1.0188 1.0227 1.0173 1.0223 1.0143 1.0120 1.0105 1.0116 1.0105 1.0135 1.0143 1.0188 1.0188 1.0227 1.0173 1.0223 1.0143 1.0120 1.0105 1.0116 1.0105 1.0135 1.0143 1.0188 1.0188 1.0227 1.0173 1.0223 1.0143 1.0120 1.0105 1.0116 1.0105 1.0135 1.0143 1.0188 1.0188 1.0227 1.0173 1.0223 1.0143 1.0120 1.0105 1.0116 1.0105 1.0135 1.0143 1.0188 1.0188 1.0227 1.0173 1.0223 1.0143 1.0120 1.0105 1.0116 1.0105 1.0135 1.0143 1.0188 1.0188 1.0227 1.0173 1.0223 1.0143 1.0120 1.0105 1.0116 1.0105 1.0135 1.0143 1.0188 1.0188 1.0227 1.0173 1.0223 1.0143 1.0120 1.0105 1.0116 1.0105 1.0135 1.0143 1.0188 1.0188 1.0227 1.0173 1.0223 1.0143 1.0120 1.0105 1.0116 1.0105 1.0135 1.0143 1.0188 1.0188 1.0227 1.0173 1.0223 1.0143 1.0120 1.0105 1.0116 1.0105 1.0135 1.0143 1.0188 1.0188 1.0227 1.0173 1.0223 1.0143 1.0120 1.0105 1.0116 1.0105)
~ Qmult=(-0.3951 1.0390 1.1073 1.1121 1.0292 1.1024 1.0585 0.9707 0.9365 0.9365 0.9756 1.0048 -0.3951 1.0390 1.1073 1.1121 1.0292 1.1024 1.0585 0.9707 0.9365 0.9365 0.9756 1.0048 -0.3951 1.0390 1.1073 1.1121 1.0292 1.1024 1.0585 0.9707 0.9365 0.9365 0.9756 1.0048 -0.3951 1.0390 1.1073 1.1121 1.0292 1.1024 1.0585 0.9707 0.9365 0.9365 0.9756 1.0048 -0.3951 1.0390 1.1073 1.1121 1.0292 1.1024 1.0585 0.9707 0.9365 0.9365 0.9756 1.0048 -0.3951 1.0390 1.1073 1.1121 1.0292 1.1024 1.0585 0.9707 0.9365 0.9365 0.9756 1.0048 -0.3951 1.0390 1.1073 1.1121 1.0292 1.1024 1.0585 0.9707 0.9365 0.9365 0.9756 1.0048 -0.3951 1.0390 1.1073 1.1121 1.0292 1.1024 1.0585 0.9707 0.9365 0.9365 0.9756 1.0048 -0.3951 1.0390 1.1073 1.1121 1.0292 1.1024 1.0585 0.9707 0.9365 0.9365 0.9756 1.0048 -0.3951 1.0390 1.1073 1.1121 1.0292 1.1024 1.0585 0.9707 0.9365 0.9365 0.9756 1.0048 -0.3951 1.0390 1.1073 1.1121 1.0292 1.1024 1.0585 0.9707 0.9365 0.9365 0.9756 1.0048 -0.3951 1.0390 1.1073 1.1121 1.0292 1.1024 1.0585 0.9707 0.9365 0.9365 0.9756 1.0048)

new loadshape.eletroposto12 npts=144 minterval=10
~ Pmult=(1.0135 1.0143 1.0188 1.0188 1.0227 1.0173 1.0223 1.0143 1.0120 1.0105 1.0116 1.0105 1.0135 1.0143 1.0188 1.0188 1.0227 1.0173 1.0223 1.0143 1.0120 1.0105 1.0116 1.0105 1.0135 1.0143 1.0188 1.0188 1.0227 1.0173 1.0223 1.0143 1.0120 1.0105 1.0116 1.0105 1.0135 1.0143 1.0188 1.0188 1.0227 1.0173 1.0223 1.0143 1.0120 1.0105 1.0116 1.0105 1.0135 1.0143 1.0188 1.0188 1.0227 1.0173 1.0223 1.0143 1.0120 1.0105 1.0116 1.0105 1.0135 1.0143 1.0188 1.0188 1.0227 1.0173 1.0223 1.0143 1.0120 1.0105 1.0116 1.0105 1.0135 1.0143 1.0188 1.0188 1.0227 1.0173 1.0223 1.0143 1.0120 1.0105 1.0116 1.0105 1.0135 1.0143 1.0188 1.0188 1.0227 1.0173 1.0223 1.0143 1.0120 1.0105 1.0116 1.0105 1.0135 1.0143 1.0188 1.0188 1.0227 1.0173 1.0223 1.0143 1.0120 1.0105 1.0116 1.0105 1.0135 1.0143 1.0188 1.0188 1.0227 1.0173 1.0223 1.0143 1.0120 1.0105 1.0116 1.0105 1.0135 1.0143 1.0188 1.0188 1.0227 1.0173 1.0223 1.0143 1.0120 1.0105 1.0116 1.0105 1.0135 1.0143 1.0188 1.0188 1.0227 1.0173 1.0223 1.0143 1.0120 1.0105 1.0116 1.0105)
~ Qmult=(-0.3951 1.0390 1.1073 1.1121 1.0292 1.1024 1.0585 0.9707 0.9365 0.9365 0.9756 1.0048 -0.3951 1.0390 1.1073 1.1121 1.0292 1.1024 1.0585 0.9707 0.9365 0.9365 0.9756 1.0048 -0.3951 1.0390 1.1073 1.1121 1.0292 1.1024 1.0585 0.9707 0.9365 0.9365 0.9756 1.0048 -0.3951 1.0390 1.1073 1.1121 1.0292 1.1024 1.0585 0.9707 0.9365 0.9365 0.9756 1.0048 -0.3951 1.0390 1.1073 1.1121 1.0292 1.1024 1.0585 0.9707 0.9365 0.9365 0.9756 1.0048 -0.3951 1.0390 1.1073 1.1121 1.0292 1.1024 1.0585 0.9707 0.9365 0.9365 0.9756 1.0048 -0.3951 1.0390 1.1073 1.1121 1.0292 1.1024 1.0585 0.9707 0.9365 0.9365 0.9756 1.0048 -0.3951 1.0390 1.1073 1.1121 1.0292 1.1024 1.0585 0.9707 0.9365 0.9365 0.9756 1.0048 -0.3951 1.0390 1.1073 1.1121 1.0292 1.1024 1.0585 0.9707 0.9365 0.9365 0.9756 1.0048 -0.3951 1.0390 1.1073 1.1121 1.0292 1.1024 1.0585 0.9707 0.9365 0.9365 0.9756 1.0048 -0.3951 1.0390 1.1073 1.1121 1.0292 1.1024 1.0585 0.9707 0.9365 0.9365 0.9756 1.0048 -0.3951 1.0390 1.1073 1.1121 1.0292 1.1024 1.0585 0.9707 0.9365 0.9365 0.9756 1.0048)

new loadshape.eletroposto13 npts=144 minterval=10
~ Pmult=(1.0135 1.0143 1.0188 1.0188 1.0227 1.0173 1.0223 1.0143 1.0120 1.0105 1.0116 1.0105 1.0135 1.0143 1.0188 1.0188 1.0227 1.0173 1.0223 1.0143 1.0120 1.0105 1.0116 1.0105 1.0135 1.0143 1.0188 1.0188 1.0227 1.0173 1.0223 1.0143 1.0120 1.0105 1.0116 1.0105 1.0135 1.0143 1.0188 1.0188 1.0227 1.0173 1.0223 1.0143 1.0120 1.0105 1.0116 1.0105 1.0135 1.0143 1.0188 1.0188 1.0227 1.0173 1.0223 1.0143 1.0120 1.0105 1.0116 1.0105 1.0135 1.0143 1.0188 1.0188 1.0227 1.0173 1.0223 1.0143 1.0120 1.0105 1.0116 1.0105 1.0135 1.0143 1.0188 1.0188 1.0227 1.0173 1.0223 1.0143 1.0120 1.0105 1.0116 1.0105 1.0135 1.0143 1.0188 1.0188 1.0227 1.0173 1.0223 1.0143 1.0120 1.0105 1.0116 1.0105 1.0135 1.0143 1.0188 1.0188 1.0227 1.0173 1.0223 1.0143 1.0120 1.0105 1.0116 1.0105 1.0135 1.0143 1.0188 1.0188 1.0227 1.0173 1.0223 1.0143 1.0120 1.0105 1.0116 1.0105 1.0135 1.0143 1.0188 1.0188 1.0227 1.0173 1.0223 1.0143 1.0120 1.0105 1.0116 1.0105 1.0135 1.0143 1.0188 1.0188 1.0227 1.0173 1.0223 1.0143 1.0120 1.0105 1.0116 1.0105)
~ Qmult=(-0.3951 1.0390 1.1073 1.1121 1.0292 1.1024 1.0585 0.9707 0.9365 0.9365 0.9756 1.0048 -0.3951 1.0390 1.1073 1.1121 1.0292 1.1024 1.0585 0.9707 0.9365 0.9365 0.9756 1.0048 -0.3951 1.0390 1.1073 1.1121 1.0292 1.1024 1.0585 0.9707 0.9365 0.9365 0.9756 1.0048 -0.3951 1.0390 1.1073 1.1121 1.0292 1.1024 1.0585 0.9707 0.9365 0.9365 0.9756 1.0048 -0.3951 1.0390 1.1073 1.1121 1.0292 1.1024 1.0585 0.9707 0.9365 0.9365 0.9756 1.0048 -0.3951 1.0390 1.1073 1.1121 1.0292 1.1024 1.0585 0.9707 0.9365 0.9365 0.9756 1.0048 -0.3951 1.0390 1.1073 1.1121 1.0292 1.1024 1.0585 0.9707 0.9365 0.9365 0.9756 1.0048 -0.3951 1.0390 1.1073 1.1121 1.0292 1.1024 1.0585 0.9707 0.9365 0.9365 0.9756 1.0048 -0.3951 1.0390 1.1073 1.1121 1.0292 1.1024 1.0585 0.9707 0.9365 0.9365 0.9756 1.0048 -0.3951 1.0390 1.1073 1.1121 1.0292 1.1024 1.0585 0.9707 0.9365 0.9365 0.9756 1.0048 -0.3951 1.0390 1.1073 1.1121 1.0292 1.1024 1.0585 0.9707 0.9365 0.9365 0.9756 1.0048 -0.3951 1.0390 1.1073 1.1121 1.0292 1.1024 1.0585 0.9707 0.9365 0.9365 0.9756 1.0048)

new loadshape.eletroposto14 npts=144 minterval=10
~ Pmult=(1.0135 1.0143 1.0188 1.0188 1.0227 1.0173 1.0223 1.0143 1.0120 1.0105 1.0116 1.0105 1.0135 1.0143 1.0188 1.0188 1.0227 1.0173 1.0223 1.0143 1.0120 1.0105 1.0116 1.0105 1.0135 1.0143 1.0188 1.0188 1.0227 1.0173 1.0223 1.0143 1.0120 1.0105 1.0116 1.0105 1.0135 1.0143 1.0188 1.0188 1.0227 1.0173 1.0223 1.0143 1.0120 1.0105 1.0116 1.0105 1.0135 1.0143 1.0188 1.0188 1.0227 1.0173 1.0223 1.0143 1.0120 1.0105 1.0116 1.0105 1.0135 1.0143 1.0188 1.0188 1.0227 1.0173 1.0223 1.0143 1.0120 1.0105 1.0116 1.0105 1.0135 1.0143 1.0188 1.0188 1.0227 1.0173 1.0223 1.0143 1.0120 1.0105 1.0116 1.0105 1.0135 1.0143 1.0188 1.0188 1.0227 1.0173 1.0223 1.0143 1.0120 1.0105 1.0116 1.0105 1.0135 1.0143 1.0188 1.0188 1.0227 1.0173 1.0223 1.0143 1.0120 1.0105 1.0116 1.0105 1.0135 1.0143 1.0188 1.0188 1.0227 1.0173 1.0223 1.0143 1.0120 1.0105 1.0116 1.0105 1.0135 1.0143 1.0188 1.0188 1.0227 1.0173 1.0223 1.0143 1.0120 1.0105 1.0116 1.0105 1.0135 1.0143 1.0188 1.0188 1.0227 1.0173 1.0223 1.0143 1.0120 1.0105 1.0116 1.0105)
~ Qmult=(-0.3951 1.0390 1.1073 1.1121 1.0292 1.1024 1.0585 0.9707 0.9365 0.9365 0.9756 1.0048 -0.3951 1.0390 1.1073 1.1121 1.0292 1.1024 1.0585 0.9707 0.9365 0.9365 0.9756 1.0048 -0.3951 1.0390 1.1073 1.1121 1.0292 1.1024 1.0585 0.9707 0.9365 0.9365 0.9756 1.0048 -0.3951 1.0390 1.1073 1.1121 1.0292 1.1024 1.0585 0.9707 0.9365 0.9365 0.9756 1.0048 -0.3951 1.0390 1.1073 1.1121 1.0292 1.1024 1.0585 0.9707 0.9365 0.9365 0.9756 1.0048 -0.3951 1.0390 1.1073 1.1121 1.0292 1.1024 1.0585 0.9707 0.9365 0.9365 0.9756 1.0048 -0.3951 1.0390 1.1073 1.1121 1.0292 1.1024 1.0585 0.9707 0.9365 0.9365 0.9756 1.0048 -0.3951 1.0390 1.1073 1.1121 1.0292 1.1024 1.0585 0.9707 0.9365 0.9365 0.9756 1.0048 -0.3951 1.0390 1.1073 1.1121 1.0292 1.1024 1.0585 0.9707 0.9365 0.9365 0.9756 1.0048 -0.3951 1.0390 1.1073 1.1121 1.0292 1.1024 1.0585 0.9707 0.9365 0.9365 0.9756 1.0048 -0.3951 1.0390 1.1073 1.1121 1.0292 1.1024 1.0585 0.9707 0.9365 0.9365 0.9756 1.0048 -0.3951 1.0390 1.1073 1.1121 1.0292 1.1024 1.0585 0.9707 0.9365 0.9365 0.9756 1.0048)

new loadshape.eletroposto15 npts=144 minterval=10