new loadshape.eletroposto1 npts=144 minterval=10
~ Pmult=(0.0000 0.0000 0.0000 0.0000 0.0000 0.0000 0.0000 0.0000 0.0000 0.0000 0.0000 0.0000 0.0000 0.0000 0.0000 0.0000 0.0000 0.0000 0.0000 0.0000 0.0000 0.0000 0.0000 0.0000 0.0000 0.0000 0.0000 0.0000 0.0000 0.0000 0.0000 0.0000 0.0000 0.0000 0.0000 0.0000 0.0000 0.0000 0.0000 0.0000 0.0000 0.0000 0.0000 0.0000 0.0000 0.0000 0.0000 0.0000 0.0000 0.0000 0.0000 0.0000 0.0000 0.0000 0.0000 0.0000 0.0000 0.0000 0.0000 0.0000 3.0405 3.0428 3.0565 3.0565 3.0680 3.0520 3.0668 3.0428 3.0359 3.0314 3.0348 3.0314 2.0270 2.0285 2.0377 2.0377 2.0453 2.0346 2.0446 2.0285 2.0240 2.0209 2.0232 2.0209 0.0000 0.0000 0.0000 0.0000 0.0000 0.0000 0.0000 0.0000 0.0000 0.0000 0.0000 0.0000 1.0135 1.0143 1.0188 1.0188 1.0227 1.0173 1.0223 1.0143 1.0120 1.0105 1.0116 1.0105 1.0135 1.0143 1.0188 1.0188 1.0227 1.0173 1.0223 1.0143 1.0120 1.0105 1.0116 1.0105 0.0000 0.0000 0.0000 0.0000 0.0000 0.0000 0.0000 0.0000 0.0000 0.0000 0.0000 0.0000 0.0000 0.0000 0.0000 0.0000 0.0000 0.0000 0.0000 0.0000 0.0000 0.0000 0.0000 0.0000 )
~ Qmult=(-0.0000 0.0000 0.0000 0.0000 0.0000 0.0000 0.0000 0.0000 0.0000 0.0000 0.0000 0.0000 -0.0000 0.0000 0.0000 0.0000 0.0000 0.0000 0.0000 0.0000 0.0000 0.0000 0.0000 0.0000 -0.0000 0.0000 0.0000 0.0000 0.0000 0.0000 0.0000 0.0000 0.0000 0.0000 0.0000 0.0000 -0.0000 0.0000 0.0000 0.0000 0.0000 0.0000 0.0000 0.0000 0.0000 0.0000 0.0000 0.0000 -0.0000 0.0000 0.0000 0.0000 0.0000 0.0000 0.0000 0.0000 0.0000 0.0000 0.0000 0.0000 -1.1853 3.1169 3.3218 3.3364 3.0876 3.3071 3.1754 2.9120 2.8096 2.8096 2.9267 3.0145 -0.7902 2.0779 2.2145 2.2243 2.0584 2.2048 2.1170 1.9414 1.8731 1.8731 1.9511 2.0096 -0.0000 0.0000 0.0000 0.0000 0.0000 0.0000 0.0000 0.0000 0.0000 0.0000 0.0000 0.0000 -0.3951 1.0390 1.1073 1.1121 1.0292 1.1024 1.0585 0.9707 0.9365 0.9365 0.9756 1.0048 -0.3951 1.0390 1.1073 1.1121 1.0292 1.1024 1.0585 0.9707 0.9365 0.9365 0.9756 1.0048 -0.0000 0.0000 0.0000 0.0000 0.0000 0.0000 0.0000 0.0000 0.0000 0.0000 0.0000 0.0000 -0.0000 0.0000 0.0000 0.0000 0.0000 0.0000 0.0000 0.0000 0.0000 0.0000 0.0000 0.0000 )

new loadshape.eletroposto2 npts=144 minterval=10
~ Pmult=(0.0000 0.0000 0.0000 0.0000 0.0000 0.0000 0.0000 0.0000 0.0000 0.0000 0.0000 0.0000 0.0000 0.0000 0.0000 0.0000 0.0000 0.0000 0.0000 0.0000 0.0000 0.0000 0.0000 0.0000 0.0000 0.0000 0.0000 0.0000 0.0000 0.0000 0.0000 0.0000 0.0000 0.0000 0.0000 0.0000 0.0000 0.0000 0.0000 0.0000 0.0000 0.0000 0.0000 0.0000 0.0000 0.0000 0.0000 0.0000 2.0270 2.0285 2.0377 2.0377 2.0453 2.0346 2.0446 2.0285 2.0240 2.0209 2.0232 2.0209 1.0135 1.0143 1.0188 1.0188 1.0227 1.0173 1.0223 1.0143 1.0120 1.0105 1.0116 1.0105 1.0135 1.0143 1.0188 1.0188 1.0227 1.0173 1.0223 1.0143 1.0120 1.0105 1.0116 1.0105 0.0000 0.0000 0.0000 0.0000 0.0000 0.0000 0.0000 0.0000 0.0000 0.0000 0.0000 0.0000 3.0405 3.0428 3.0565 3.0565 3.0680 3.0520 3.0668 3.0428 3.0359 3.0314 3.0348 3.0314 1.0135 1.0143 1.0188 1.0188 1.0227 1.0173 1.0223 1.0143 1.0120 1.0105 1.0116 1.0105 3.0405 3.0428 3.0565 3.0565 3.0680 3.0520 3.0668 3.0428 3.0359 3.0314 3.0348 3.0314 0.0000 0.0000 0.0000 0.0000 0.0000 0.0000 0.0000 0.0000 0.0000 0.0000 0.0000 0.0000 )
~ Qmult=(-0.0000 0.0000 0.0000 0.0000 0.0000 0.0000 0.0000 0.0000 0.0000 0.0000 0.0000 0.0000 -0.0000 0.0000 0.0000 0.0000 0.0000 0.0000 0.0000 0.0000 0.0000 0.0000 0.0000 0.0000 -0.0000 0.0000 0.0000 0.0000 0.0000 0.0000 0.0000 0.0000 0.0000 0.0000 0.0000 0.0000 -0.0000 0.0000 0.0000 0.0000 0.0000 0.0000 0.0000 0.0000 0.0000 0.0000 0.0000 0.0000 -0.7902 2.0779 2.2145 2.2243 2.0584 2.2048 2.1170 1.9414 1.8731 1.8731 1.9511 2.0096 -0.3951 1.0390 1.1073 1.1121 1.0292 1.1024 1.0585 0.9707 0.9365 0.9365 0.9756 1.0048 -0.3951 1.0390 1.1073 1.1121 1.0292 1.1024 1.0585 0.9707 0.9365 0.9365 0.9756 1.0048 -0.0000 0.0000 0.0000 0.0000 0.0000 0.0000 0.0000 0.0000 0.0000 0.0000 0.0000 0.0000 -1.1853 3.1169 3.3218 3.3364 3.0876 3.3071 3.1754 2.9120 2.8096 2.8096 2.9267 3.0145 -0.3951 1.0390 1.1073 1.1121 1.0292 1.1024 1.0585 0.9707 0.9365 0.9365 0.9756 1.0048 -1.1853 3.1169 3.3218 3.3364 3.0876 3.3071 3.1754 2.9120 2.8096 2.8096 2.9267 3.0145 -0.0000 0.0000 0.0000 0.0000 0.0000 0.0000 0.0000 0.0000 0.0000 0.0000 0.0000 0.0000 )

new loadshape.eletroposto3 npts=144 minterval=10
~ Pmult=(0.0000 0.0000 0.0000 0.0000 0.0000 0.0000 0.0000 0.0000 0.0000 0.0000 0.0000 0.0000 0.0000 0.0000 0.0000 0.0000 0.0000 0.0000 0.0000 0.0000 0.0000 0.0000 0.0000 0.0000 0.0000 0.0000 0.0000 0.0000 0.0000 0.0000 0.0000 0.0000 0.0000 0.0000 0.0000 0.0000 0.0000 0.0000 0.0000 0.0000 0.0000 0.0000 0.0000 0.0000 0.0000 0.0000 0.0000 0.0000 1.0135 1.0143 1.0188 1.0188 1.0227 1.0173 1.0223 1.0143 1.0120 1.0105 1.0116 1.0105 0.0000 0.0000 0.0000 0.0000 0.0000 0.0000 0.0000 0.0000 0.0000 0.0000 0.0000 0.0000 0.0000 0.0000 0.0000 0.0000 0.0000 0.0000 0.0000 0.0000 0.0000 0.0000 0.0000 0.0000 1.0135 1.0143 1.0188 1.0188 1.0227 1.0173 1.0223 1.0143 1.0120 1.0105 1.0116 1.0105 1.0135 1.0143 1.0188 1.0188 1.0227 1.0173 1.0223 1.0143 1.0120 1.0105 1.0116 1.0105 0.0000 0.0000 0.0000 0.0000 0.0000 0.0000 0.0000 0.0000 0.0000 0.0000 0.0000 0.0000 1.0135 1.0143 1.0188 1.0188 1.0227 1.0173 1.0223 1.0143 1.0120 1.0105 1.0116 1.0105 0.0000 0.0000 0.0000 0.0000 0.0000 0.0000 0.0000 0.0000 0.0000 0.0000 0.0000 0.0000 )
~ Qmult=(-0.0000 0.0000 0.0000 0.0000 0.0000 0.0000 0.0000 0.0000 0.0000 0.0000 0.0000 0.0000 -0.0000 0.0000 0.0000 0.0000 0.0000 0.0000 0.0000 0.0000 0.0000 0.0000 0.0000 0.0000 -0.0000 0.0000 0.0000 0.0000 0.0000 0.0000 0.0000 0.0000 0.0000 0.0000 0.0000 0.0000 -0.0000 0.0000 0.0000 0.0000 0.0000 0.0000 0.0000 0.0000 0.0000 0.0000 0.0000 0.0000 -0.3951 1.0390 1.1073 1.1121 1.0292 1.1024 1.0585 0.9707 0.9365 0.9365 0.9756 1.0048 -0.0000 0.0000 0.0000 0.0000 0.0000 0.0000 0.0000 0.0000 0.0000 0.0000 0.0000 0.0000 -0.0000 0.0000 0.0000 0.0000 0.0000 0.0000 0.0000 0.0000 0.0000 0.0000 0.0000 0.0000 -0.3951 1.0390 1.1073 1.1121 1.0292 1.1024 1.0585 0.9707 0.9365 0.9365 0.9756 1.0048 -0.3951 1.0390 1.1073 1.1121 1.0292 1.1024 1.0585 0.9707 0.9365 0.9365 0.9756 1.0048 -0.0000 0.0000 0.0000 0.0000 0.0000 0.0000 0.0000 0.0000 0.0000 0.0000 0.0000 0.0000 -0.3951 1.0390 1.1073 1.1121 1.0292 1.1024 1.0585 0.9707 0.9365 0.9365 0.9756 1.0048 -0.0000 0.0000 0.0000 0.0000 0.0000 0.0000 0.0000 0.0000 0.0000 0.0000 0.0000 0.0000 )

new loadshape.eletroposto4 npts=144 minterval=10
~ Pmult=(0.0000 0.0000 0.0000 0.0000 0.0000 0.0000 0.0000 0.0000 0.0000 0.0000 0.0000 0.0000 0.0000 0.0000 0.0000 0.0000 0.0000 0.0000 0.0000 0.0000 0.0000 0.0000 0.0000 0.0000 0.0000 0.0000 0.0000 0.0000 0.0000 0.0000 0.0000 0.0000 0.0000 0.0000 0.0000 0.0000 0.0000 0.0000 0.0000 0.0000 0.0000 0.0000 0.0000 0.0000 0.0000 0.0000 0.0000 0.0000 0.0000 0.0000 0.0000 0.0000 0.0000 0.0000 0.0000 0.0000 0.0000 0.0000 0.0000 0.0000 2.0270 2.0285 2.0377 2.0377 2.0453 2.0346 2.0446 2.0285 2.0240 2.0209 2.0232 2.0209 1.0135 1.0143 1.0188 1.0188 1.0227 1.0173 1.0223 1.0143 1.0120 1.0105 1.0116 1.0105 0.0000 0.0000 0.0000 0.0000 0.0000 0.0000 0.0000 0.0000 0.0000 0.0000 0.0000 0.0000 0.0000 0.0000 0.0000 0.0000 0.0000 0.0000 0.0000 0.0000 0.0000 0.0000 0.0000 0.0000 2.0270 2.0285 2.0377 2.0377 2.0453 2.0346 2.0446 2.0285 2.0240 2.0209 2.0232 2.0209 0.0000 0.0000 0.0000 0.0000 0.0000 0.0000 0.0000 0.0000 0.0000 0.0000 0.0000 0.0000 0.0000 0.0000 0.0000 0.0000 0.0000 0.0000 0.0000 0.0000 0.0000 0.0000 0.0000 0.0000 )
~ Qmult=(-0.0000 0.0000 0.0000 0.0000 0.0000 0.0000 0.0000 0.0000 0.0000 0.0000 0.0000 0.0000 -0.0000 0.0000 0.0000 0.0000 0.0000 0.0000 0.0000 0.0000 0.0000 0.0000 0.0000 0.0000 -0.0000 0.0000 0.0000 0.0000 0.0000 0.0000 0.0000 0.0000 0.0000 0.0000 0.0000 0.0000 -0.0000 0.0000 0.0000 0.0000 0.0000 0.0000 0.0000 0.0000 0.0000 0.0000 0.0000 0.0000 -0.0000 0.0000 0.0000 0.0000 0.0000 0.0000 0.0000 0.0000 0.0000 0.0000 0.0000 0.0000 -0.7902 2.0779 2.2145 2.2243 2.0584 2.2048 2.1170 1.9414 1.8731 1.8731 1.9511 2.0096 -0.3951 1.0390 1.1073 1.1121 1.0292 1.1024 1.0585 0.9707 0.9365 0.9365 0.9756 1.0048 -0.0000 0.0000 0.0000 0.0000 0.0000 0.0000 0.0000 0.0000 0.0000 0.0000 0.0000 0.0000 -0.0000 0.0000 0.0000 0.0000 0.0000 0.0000 0.0000 0.0000 0.0000 0.0000 0.0000 0.0000 -0.7902 2.0779 2.2145 2.2243 2.0584 2.2048 2.1170 1.9414 1.8731 1.8731 1.9511 2.0096 -0.0000 0.0000 0.0000 0.0000 0.0000 0.0000 0.0000 0.0000 0.0000 0.0000 0.0000 0.0000 -0.0000 0.0000 0.0000 0.0000 0.0000 0.0000 0.0000 0.0000 0.0000 0.0000 0.0000 0.0000 )

new loadshape.eletroposto5 npts=144 minterval=10
~ Pmult=(0.0000 0.0000 0.0000 0.0000 0.0000 0.0000 0.0000 0.0000 0.0000 0.0000 0.0000 0.0000 0.0000 0.0000 0.0000 0.0000 0.0000 0.0000 0.0000 0.0000 0.0000 0.0000 0.0000 0.0000 0.0000 0.0000 0.0000 0.0000 0.0000 0.0000 0.0000 0.0000 0.0000 0.0000 0.0000 0.0000 0.0000 0.0000 0.0000 0.0000 0.0000 0.0000 0.0000 0.0000 0.0000 0.0000 0.0000 0.0000 0.0000 0.0000 0.0000 0.0000 0.0000 0.0000 0.0000 0.0000 0.0000 0.0000 0.0000 0.0000 0.0000 0.0000 0.0000 0.0000 0.0000 0.0000 0.0000 0.0000 0.0000 0.0000 0.0000 0.0000 2.0270 2.0285 2.0377 2.0377 2.0453 2.0346 2.0446 2.0285 2.0240 2.0209 2.0232 2.0209 2.0270 2.0285 2.0377 2.0377 2.0453 2.0346 2.0446 2.0285 2.0240 2.0209 2.0232 2.0209 4.0540 4.0571 4.0754 4.0754 4.0906 4.0693 4.0891 4.0571 4.0479 4.0418 4.0464 4.0418 2.0270 2.0285 2.0377 2.0377 2.0453 2.0346 2.0446 2.0285 2.0240 2.0209 2.0232 2.0209 1.0135 1.0143 1.0188 1.0188 1.0227 1.0173 1.0223 1.0143 1.0120 1.0105 1.0116 1.0105 0.0000 0.0000 0.0000 0.0000 0.0000 0.0000 0.0000 0.0000 0.0000 0.0000 0.0000 0.0000 )
~ Qmult=(-0.0000 0.0000 0.0000 0.0000 0.0000 0.0000 0.0000 0.0000 0.0000 0.0000 0.0000 0.0000 -0.0000 0.0000 0.0000 0.0000 0.0000 0.0000 0.0000 0.0000 0.0000 0.0000 0.0000 0.0000 -0.0000 0.0000 0.0000 0.0000 0.0000 0.0000 0.0000 0.0000 0.0000 0.0000 0.0000 0.0000 -0.0000 0.0000 0.0000 0.0000 0.0000 0.0000 0.0000 0.0000 0.0000 0.0000 0.0000 0.0000 -0.0000 0.0000 0.0000 0.0000 0.0000 0.0000 0.0000 0.0000 0.0000 0.0000 0.0000 0.0000 -0.0000 0.0000 0.0000 0.0000 0.0000 0.0000 0.0000 0.0000 0.0000 0.0000 0.0000 0.0000 -0.7902 2.0779 2.2145 2.2243 2.0584 2.2048 2.1170 1.9414 1.8731 1.8731 1.9511 2.0096 -0.7902 2.0779 2.2145 2.2243 2.0584 2.2048 2.1170 1.9414 1.8731 1.8731 1.9511 2.0096 -1.5804 4.1559 4.4290 4.4485 4.1169 4.4095 4.2339 3.8827 3.7461 3.7461 3.9022 4.0193 -0.7902 2.0779 2.2145 2.2243 2.0584 2.2048 2.1170 1.9414 1.8731 1.8731 1.9511 2.0096 -0.3951 1.0390 1.1073 1.1121 1.0292 1.1024 1.0585 0.9707 0.9365 0.9365 0.9756 1.0048 -0.0000 0.0000 0.0000 0.0000 0.0000 0.0000 0.0000 0.0000 0.0000 0.0000 0.0000 0.0000 )

new loadshape.eletroposto6 npts=144 minterval=10
~ Pmult=(0.0000 0.0000 0.0000 0.0000 0.0000 0.0000 0.0000 0.0000 0.0000 0.0000 0.0000 0.0000 0.0000 0.0000 0.0000 0.0000 0.0000 0.0000 0.0000 0.0000 0.0000 0.0000 0.0000 0.0000 0.0000 0.0000 0.0000 0.0000 0.0000 0.0000 0.0000 0.0000 0.0000 0.0000 0.0000 0.0000 0.0000 0.0000 0.0000 0.0000 0.0000 0.0000 0.0000 0.0000 0.0000 0.0000 0.0000 0.0000 2.0270 2.0285 2.0377 2.0377 2.0453 2.0346 2.0446 2.0285 2.0240 2.0209 2.0232 2.0209 0.0000 0.0000 0.0000 0.0000 0.0000 0.0000 0.0000 0.0000 0.0000 0.0000 0.0000 0.0000 2.0270 2.0285 2.0377 2.0377 2.0453 2.0346 2.0446 2.0285 2.0240 2.0209 2.0232 2.0209 1.0135 1.0143 1.0188 1.0188 1.0227 1.0173 1.0223 1.0143 1.0120 1.0105 1.0116 1.0105 3.0405 3.0428 3.0565 3.0565 3.0680 3.0520 3.0668 3.0428 3.0359 3.0314 3.0348 3.0314 1.0135 1.0143 1.0188 1.0188 1.0227 1.0173 1.0223 1.0143 1.0120 1.0105 1.0116 1.0105 0.0000 0.0000 0.0000 0.0000 0.0000 0.0000 0.0000 0.0000 0.0000 0.0000 0.0000 0.0000 0.0000 0.0000 0.0000 0.0000 0.0000 0.0000 0.0000 0.0000 0.0000 0.0000 0.0000 0.0000 )
~ Qmult=(-0.0000 0.0000 0.0000 0.0000 0.0000 0.0000 0.0000 0.0000 0.0000 0.0000 0.0000 0.0000 -0.0000 0.0000 0.0000 0.0000 0.0000 0.0000 0.0000 0.0000 0.0000 0.0000 0.0000 0.0000 -0.0000 0.0000 0.0000 0.0000 0.0000 0.0000 0.0000 0.0000 0.0000 0.0000 0.0000 0.0000 -0.0000 0.0000 0.0000 0.0000 0.0000 0.0000 0.0000 0.0000 0.0000 0.0000 0.0000 0.0000 -0.7902 2.0779 2.2145 2.2243 2.0584 2.2048 2.1170 1.9414 1.8731 1.8731 1.9511 2.0096 -0.0000 0.0000 0.0000 0.0000 0.0000 0.0000 0.0000 0.0000 0.0000 0.0000 0.0000 0.0000 -0.7902 2.0779 2.2145 2.2243 2.0584 2.2048 2.1170 1.9414 1.8731 1.8731 1.9511 2.0096 -0.3951 1.0390 1.1073 1.1121 1.0292 1.1024 1.0585 0.9707 0.9365 0.9365 0.9756 1.0048 -1.1853 3.1169 3.3218 3.3364 3.0876 3.3071 3.1754 2.9120 2.8096 2.8096 2.9267 3.0145 -0.3951 1.0390 1.1073 1.1121 1.0292 1.1024 1.0585 0.9707 0.9365 0.9365 0.9756 1.0048 -0.0000 0.0000 0.0000 0.0000 0.0000 0.0000 0.0000 0.0000 0.0000 0.0000 0.0000 0.0000 -0.0000 0.0000 0.0000 0.0000 0.0000 0.0000 0.0000 0.0000 0.0000 0.0000 0.0000 0.0000 )

new loadshape.eletroposto7 npts=144 minterval=10
~ Pmult=(0.0000 0.0000 0.0000 0.0000 0.0000 0.0000 0.0000 0.0000 0.0000 0.0000 0.0000 0.0000 0.0000 0.0000 0.0000 0.0000 0.0000 0.0000 0.0000 0.0000 0.0000 0.0000 0.0000 0.0000 0.0000 0.0000 0.0000 0.0000 0.0000 0.0000 0.0000 0.0000 0.0000 0.0000 0.0000 0.0000 0.0000 0.0000 0.0000 0.0000 0.0000 0.0000 0.0000 0.0000 0.0000 0.0000 0.0000 0.0000 0.0000 0.0000 0.0000 0.0000 0.0000 0.0000 0.0000 0.0000 0.0000 0.0000 0.0000 0.0000 3.0405 3.0428 3.0565 3.0565 3.0680 3.0520 3.0668 3.0428 3.0359 3.0314 3.0348 3.0314 3.0405 3.0428 3.0565 3.0565 3.0680 3.0520 3.0668 3.0428 3.0359 3.0314 3.0348 3.0314 3.0405 3.0428 3.0565 3.0565 3.0680 3.0520 3.0668 3.0428 3.0359 3.0314 3.0348 3.0314 0.0000 0.0000 0.0000 0.0000 0.0000 0.0000 0.0000 0.0000 0.0000 0.0000 0.0000 0.0000 1.0135 1.0143 1.0188 1.0188 1.0227 1.0173 1.0223 1.0143 1.0120 1.0105 1.0116 1.0105 0.0000 0.0000 0.0000 0.0000 0.0000 0.0000 0.0000 0.0000 0.0000 0.0000 0.0000 0.0000 0.0000 0.0000 0.0000 0.0000 0.0000 0.0000 0.0000 0.0000 0.0000 0.0000 0.0000 0.0000 )
~ Qmult=(-0.0000 0.0000 0.0000 0.0000 0.0000 0.0000 0.0000 0.0000 0.0000 0.0000 0.0000 0.0000 -0.0000 0.0000 0.0000 0.0000 0.0000 0.0000 0.0000 0.0000 0.0000 0.0000 0.0000 0.0000 -0.0000 0.0000 0.0000 0.0000 0.0000 0.0000 0.0000 0.0000 0.0000 0.0000 0.0000 0.0000 -0.0000 0.0000 0.0000 0.0000 0.0000 0.0000 0.0000 0.0000 0.0000 0.0000 0.0000 0.0000 -0.0000 0.0000 0.0000 0.0000 0.0000 0.0000 0.0000 0.0000 0.0000 0.0000 0.0000 0.0000 -1.1853 3.1169 3.3218 3.3364 3.0876 3.3071 3.1754 2.9120 2.8096 2.8096 2.9267 3.0145 -1.1853 3.1169 3.3218 3.3364 3.0876 3.3071 3.1754 2.9120 2.8096 2.8096 2.9267 3.0145 -1.1853 3.1169 3.3218 3.3364 3.0876 3.3071 3.1754 2.9120 2.8096 2.8096 2.9267 3.0145 -0.0000 0.0000 0.0000 0.0000 0.0000 0.0000 0.0000 0.0000 0.0000 0.0000 0.0000 0.0000 -0.3951 1.0390 1.1073 1.1121 1.0292 1.1024 1.0585 0.9707 0.9365 0.9365 0.9756 1.0048 -0.0000 0.0000 0.0000 0.0000 0.0000 0.0000 0.0000 0.0000 0.0000 0.0000 0.0000 0.0000 -0.0000 0.0000 0.0000 0.0000 0.0000 0.0000 0.0000 0.0000 0.0000 0.0000 0.0000 0.0000 )

new loadshape.eletroposto8 npts=144 minterval=10
~ Pmult=(0.0000 0.0000 0.0000 0.0000 0.0000 0.0000 0.0000 0.0000 0.0000 0.0000 0.0000 0.0000 0.0000 0.0000 0.0000 0.0000 0.0000 0.0000 0.0000 0.0000 0.0000 0.0000 0.0000 0.0000 0.0000 0.0000 0.0000 0.0000 0.0000 0.0000 0.0000 0.0000 0.0000 0.0000 0.0000 0.0000 0.0000 0.0000 0.0000 0.0000 0.0000 0.0000 0.0000 0.0000 0.0000 0.0000 0.0000 0.0000 1.0135 1.0143 1.0188 1.0188 1.0227 1.0173 1.0223 1.0143 1.0120 1.0105 1.0116 1.0105 1.0135 1.0143 1.0188 1.0188 1.0227 1.0173 1.0223 1.0143 1.0120 1.0105 1.0116 1.0105 2.0270 2.0285 2.0377 2.0377 2.0453 2.0346 2.0446 2.0285 2.0240 2.0209 2.0232 2.0209 1.0135 1.0143 1.0188 1.0188 1.0227 1.0173 1.0223 1.0143 1.0120 1.0105 1.0116 1.0105 0.0000 0.0000 0.0000 0.0000 0.0000 0.0000 0.0000 0.0000 0.0000 0.0000 0.0000 0.0000 1.0135 1.0143 1.0188 1.0188 1.0227 1.0173 1.0223 1.0143 1.0120 1.0105 1.0116 1.0105 0.0000 0.0000 0.0000 0.0000 0.0000 0.0000 0.0000 0.0000 0.0000 0.0000 0.0000 0.0000 0.0000 0.0000 0.0000 0.0000 0.0000 0.0000 0.0000 0.0000 0.0000 0.0000 0.0000 0.0000 )
~ Qmult=(-0.0000 0.0000 0.0000 0.0000 0.0000 0.0000 0.0000 0.0000 0.0000 0.0000 0.0000 0.0000 -0.0000 0.0000 0.0000 0.0000 0.0000 0.0000 0.0000 0.0000 0.0000 0.0000 0.0000 0.0000 -0.0000 0.0000 0.0000 0.0000 0.0000 0.0000 0.0000 0.0000 0.0000 0.0000 0.0000 0.0000 -0.0000 0.0000 0.0000 0.0000 0.0000 0.0000 0.0000 0.0000 0.0000 0.0000 0.0000 0.0000 -0.3951 1.0390 1.1073 1.1121 1.0292 1.1024 1.0585 0.9707 0.9365 0.9365 0.9756 1.0048 -0.3951 1.0390 1.1073 1.1121 1.0292 1.1024 1.0585 0.9707 0.9365 0.9365 0.9756 1.0048 -0.7902 2.0779 2.2145 2.2243 2.0584 2.2048 2.1170 1.9414 1.8731 1.8731 1.9511 2.0096 -0.3951 1.0390 1.1073 1.1121 1.0292 1.1024 1.0585 0.9707 0.9365 0.9365 0.9756 1.0048 -0.0000 0.0000 0.0000 0.0000 0.0000 0.0000 0.0000 0.0000 0.0000 0.0000 0.0000 0.0000 -0.3951 1.0390 1.1073 1.1121 1.0292 1.1024 1.0585 0.9707 0.9365 0.9365 0.9756 1.0048 -0.0000 0.0000 0.0000 0.0000 0.0000 0.0000 0.0000 0.0000 0.0000 0.0000 0.0000 0.0000 -0.0000 0.0000 0.0000 0.0000 0.0000 0.0000 0.0000 0.0000 0.0000 0.0000 0.0000 0.0000 )

new loadshape.eletroposto9 npts=144 minterval=10
~ Pmult=(0.0000 0.0000 0.0000 0.0000 0.0000 0.0000 0.0000 0.0000 0.0000 0.0000 0.0000 0.0000 0.0000 0.0000 0.0000 0.0000 0.0000 0.0000 0.0000 0.0000 0.0000 0.0000 0.0000 0.0000 0.0000 0.0000 0.0000 0.0000 0.0000 0.0000 0.0000 0.0000 0.0000 0.0000 0.0000 0.0000 0.0000 0.0000 0.0000 0.0000 0.0000 0.0000 0.0000 0.0000 0.0000 0.0000 0.0000 0.0000 1.0135 1.0143 1.0188 1.0188 1.0227 1.0173 1.0223 1.0143 1.0120 1.0105 1.0116 1.0105 1.0135 1.0143 1.0188 1.0188 1.0227 1.0173 1.0223 1.0143 1.0120 1.0105 1.0116 1.0105 1.0135 1.0143 1.0188 1.0188 1.0227 1.0173 1.0223 1.0143 1.0120 1.0105 1.0116 1.0105 3.0405 3.0428 3.0565 3.0565 3.0680 3.0520 3.0668 3.0428 3.0359 3.0314 3.0348 3.0314 0.0000 0.0000 0.0000 0.0000 0.0000 0.0000 0.0000 0.0000 0.0000 0.0000 0.0000 0.0000 2.0270 2.0285 2.0377 2.0377 2.0453 2.0346 2.0446 2.0285 2.0240 2.0209 2.0232 2.0209 1.0135 1.0143 1.0188 1.0188 1.0227 1.0173 1.0223 1.0143 1.0120 1.0105 1.0116 1.0105 0.0000 0.0000 0.0000 0.0000 0.0000 0.0000 0.0000 0.0000 0.0000 0.0000 0.0000 0.0000 )
~ Qmult=(-0.0000 0.0000 0.0000 0.0000 0.0000 0.0000 0.0000 0.0000 0.0000 0.0000 0.0000 0.0000 -0.0000 0.0000 0.0000 0.0000 0.0000 0.0000 0.0000 0.0000 0.0000 0.0000 0.0000 0.0000 -0.0000 0.0000 0.0000 0.0000 0.0000 0.0000 0.0000 0.0000 0.0000 0.0000 0.0000 0.0000 -0.0000 0.0000 0.0000 0.0000 0.0000 0.0000 0.0000 0.0000 0.0000 0.0000 0.0000 0.0000 -0.3951 1.0390 1.1073 1.1121 1.0292 1.1024 1.0585 0.9707 0.9365 0.9365 0.9756 1.0048 -0.3951 1.0390 1.1073 1.1121 1.0292 1.1024 1.0585 0.9707 0.9365 0.9365 0.9756 1.0048 -0.3951 1.0390 1.1073 1.1121 1.0292 1.1024 1.0585 0.9707 0.9365 0.9365 0.9756 1.0048 -1.1853 3.1169 3.3218 3.3364 3.0876 3.3071 3.1754 2.9120 2.8096 2.8096 2.9267 3.0145 -0.0000 0.0000 0.0000 0.0000 0.0000 0.0000 0.0000 0.0000 0.0000 0.0000 0.0000 0.0000 -0.7902 2.0779 2.2145 2.2243 2.0584 2.2048 2.1170 1.9414 1.8731 1.8731 1.9511 2.0096 -0.3951 1.0390 1.1073 1.1121 1.0292 1.1024 1.0585 0.9707 0.9365 0.9365 0.9756 1.0048 -0.0000 0.0000 0.0000 0.0000 0.0000 0.0000 0.0000 0.0000 0.0000 0.0000 0.0000 0.0000 )

new loadshape.eletroposto10 npts=144 minterval=10
~ Pmult=(0.0000 0.0000 0.0000 0.0000 0.0000 0.0000 0.0000 0.0000 0.0000 0.0000 0.0000 0.0000 0.0000 0.0000 0.0000 0.0000 0.0000 0.0000 0.0000 0.0000 0.0000 0.0000 0.0000 0.0000 0.0000 0.0000 0.0000 0.0000 0.0000 0.0000 0.0000 0.0000 0.0000 0.0000 0.0000 0.0000 0.0000 0.0000 0.0000 0.0000 0.0000 0.0000 0.0000 0.0000 0.0000 0.0000 0.0000 0.0000 1.0135 1.0143 1.0188 1.0188 1.0227 1.0173 1.0223 1.0143 1.0120 1.0105 1.0116 1.0105 0.0000 0.0000 0.0000 0.0000 0.0000 0.0000 0.0000 0.0000 0.0000 0.0000 0.0000 0.0000 2.0270 2.0285 2.0377 2.0377 2.0453 2.0346 2.0446 2.0285 2.0240 2.0209 2.0232 2.0209 4.0540 4.0571 4.0754 4.0754 4.0906 4.0693 4.0891 4.0571 4.0479 4.0418 4.0464 4.0418 0.0000 0.0000 0.0000 0.0000 0.0000 0.0000 0.0000 0.0000 0.0000 0.0000 0.0000 0.0000 2.0270 2.0285 2.0377 2.0377 2.0453 2.0346 2.0446 2.0285 2.0240 2.0209 2.0232 2.0209 1.0135 1.0143 1.0188 1.0188 1.0227 1.0173 1.0223 1.0143 1.0120 1.0105 1.0116 1.0105 0.0000 0.0000 0.0000 0.0000 0.0000 0.0000 0.0000 0.0000 0.0000 0.0000 0.0000 0.0000 )
~ Qmult=(-0.0000 0.0000 0.0000 0.0000 0.0000 0.0000 0.0000 0.0000 0.0000 0.0000 0.0000 0.0000 -0.0000 0.0000 0.0000 0.0000 0.0000 0.0000 0.0000 0.0000 0.0000 0.0000 0.0000 0.0000 -0.0000 0.0000 0.0000 0.0000 0.0000 0.0000 0.0000 0.0000 0.0000 0.0000 0.0000 0.0000 -0.0000 0.0000 0.0000 0.0000 0.0000 0.0000 0.0000 0.0000 0.0000 0.0000 0.0000 0.0000 -0.3951 1.0390 1.1073 1.1121 1.0292 1.1024 1.0585 0.9707 0.9365 0.9365 0.9756 1.0048 -0.0000 0.0000 0.0000 0.0000 0.0000 0.0000 0.0000 0.0000 0.0000 0.0000 0.0000 0.0000 -0.7902 2.0779 2.2145 2.2243 2.0584 2.2048 2.1170 1.9414 1.8731 1.8731 1.9511 2.0096 -1.5804 4.1559 4.4290 4.4485 4.1169 4.4095 4.2339 3.8827 3.7461 3.7461 3.9022 4.0193 -0.0000 0.0000 0.0000 0.0000 0.0000 0.0000 0.0000 0.0000 0.0000 0.0000 0.0000 0.0000 -0.7902 2.0779 2.2145 2.2243 2.0584 2.2048 2.1170 1.9414 1.8731 1.8731 1.9511 2.0096 -0.3951 1.0390 1.1073 1.1121 1.0292 1.1024 1.0585 0.9707 0.9365 0.9365 0.9756 1.0048 -0.0000 0.0000 0.0000 0.0000 0.0000 0.0000 0.0000 0.0000 0.0000 0.0000 0.0000 0.0000 )

new loadshape.eletroposto11 npts=144 minterval=10
~ Pmult=(0.0000 0.0000 0.0000 0.0000 0.0000 0.0000 0.0000 0.0000 0.0000 0.0000 0.0000 0.0000 0.0000 0.0000 0.0000 0.0000 0.0000 0.0000 0.0000 0.0000 0.0000 0.0000 0.0000 0.0000 0.0000 0.0000 0.0000 0.0000 0.0000 0.0000 0.0000 0.0000 0.0000 0.0000 0.0000 0.0000 0.0000 0.0000 0.0000 0.0000 0.0000 0.0000 0.0000 0.0000 0.0000 0.0000 0.0000 0.0000 3.0405 3.0428 3.0565 3.0565 3.0680 3.0520 3.0668 3.0428 3.0359 3.0314 3.0348 3.0314 0.0000 0.0000 0.0000 0.0000 0.0000 0.0000 0.0000 0.0000 0.0000 0.0000 0.0000 0.0000 0.0000 0.0000 0.0000 0.0000 0.0000 0.0000 0.0000 0.0000 0.0000 0.0000 0.0000 0.0000 2.0270 2.0285 2.0377 2.0377 2.0453 2.0346 2.0446 2.0285 2.0240 2.0209 2.0232 2.0209 2.0270 2.0285 2.0377 2.0377 2.0453 2.0346 2.0446 2.0285 2.0240 2.0209 2.0232 2.0209 2.0270 2.0285 2.0377 2.0377 2.0453 2.0346 2.0446 2.0285 2.0240 2.0209 2.0232 2.0209 0.0000 0.0000 0.0000 0.0000 0.0000 0.0000 0.0000 0.0000 0.0000 0.0000 0.0000 0.0000 0.0000 0.0000 0.0000 0.0000 0.0000 0.0000 0.0000 0.0000 0.0000 0.0000 0.0000 0.0000 )
~ Qmult=(-0.0000 0.0000 0.0000 0.0000 0.0000 0.0000 0.0000 0.0000 0.0000 0.0000 0.0000 0.0000 -0.0000 0.0000 0.0000 0.0000 0.0000 0.0000 0.0000 0.0000 0.0000 0.0000 0.0000 0.0000 -0.0000 0.0000 0.0000 0.0000 0.0000 0.0000 0.0000 0.0000 0.0000 0.0000 0.0000 0.0000 -0.0000 0.0000 0.0000 0.0000 0.0000 0.0000 0.0000 0.0000 0.0000 0.0000 0.0000 0.0000 -1.1853 3.1169 3.3218 3.3364 3.0876 3.3071 3.1754 2.9120 2.8096 2.8096 2.9267 3.0145 -0.0000 0.0000 0.0000 0.0000 0.0000 0.0000 0.0000 0.0000 0.0000 0.0000 0.0000 0.0000 -0.0000 0.0000 0.0000 0.0000 0.0000 0.0000 0.0000 0.0000 0.0000 0.0000 0.0000 0.0000 -0.7902 2.0779 2.2145 2.2243 2.0584 2.2048 2.1170 1.9414 1.8731 1.8731 1.9511 2.0096 -0.7902 2.0779 2.2145 2.2243 2.0584 2.2048 2.1170 1.9414 1.8731 1.8731 1.9511 2.0096 -0.7902 2.0779 2.2145 2.2243 2.0584 2.2048 2.1170 1.9414 1.8731 1.8731 1.9511 2.0096 -0.0000 0.0000 0.0000 0.0000 0.0000 0.0000 0.0000 0.0000 0.0000 0.0000 0.0000 0.0000 -0.0000 0.0000 0.0000 0.0000 0.0000 0.0000 0.0000 0.0000 0.0000 0.0000 0.0000 0.0000 )

new loadshape.eletroposto12 npts=144 minterval=10
~ Pmult=(0.0000 0.0000 0.0000 0.0000 0.0000 0.0000 0.0000 0.0000 0.0000 0.0000 0.0000 0.0000 0.0000 0.0000 0.0000 0.0000 0.0000 0.0000 0.0000 0.0000 0.0000 0.0000 0.0000 0.0000 0.0000 0.0000 0.0000 0.0000 0.0000 0.0000 0.0000 0.0000 0.0000 0.0000 0.0000 0.0000 0.0000 0.0000 0.0000 0.0000 0.0000 0.0000 0.0000 0.0000 0.0000 0.0000 0.0000 0.0000 0.0000 0.0000 0.0000 0.0000 0.0000 0.0000 0.0000 0.0000 0.0000 0.0000 0.0000 0.0000 1.0135 1.0143 1.0188 1.0188 1.0227 1.0173 1.0223 1.0143 1.0120 1.0105 1.0116 1.0105 1.0135 1.0143 1.0188 1.0188 1.0227 1.0173 1.0223 1.0143 1.0120 1.0105 1.0116 1.0105 3.0405 3.0428 3.0565 3.0565 3.0680 3.0520 3.0668 3.0428 3.0359 3.0314 3.0348 3.0314 0.0000 0.0000 0.0000 0.0000 0.0000 0.0000 0.0000 0.0000 0.0000 0.0000 0.0000 0.0000 0.0000 0.0000 0.0000 0.0000 0.0000 0.0000 0.0000 0.0000 0.0000 0.0000 0.0000 0.0000 2.0270 2.0285 2.0377 2.0377 2.0453 2.0346 2.0446 2.0285 2.0240 2.0209 2.0232 2.0209 0.0000 0.0000 0.0000 0.0000 0.0000 0.0000 0.0000 0.0000 0.0000 0.0000 0.0000 0.0000 )
~ Qmult=(-0.0000 0.0000 0.0000 0.0000 0.0000 0.0000 0.0000 0.0000 0.0000 0.0000 0.0000 0.0000 -0.0000 0.0000 0.0000 0.0000 0.0000 0.0000 0.0000 0.0000 0.0000 0.0000 0.0000 0.0000 -0.0000 0.0000 0.0000 0.0000 0.0000 0.0000 0.0000 0.0000 0.0000 0.0000 0.0000 0.0000 -0.0000 0.0000 0.0000 0.0000 0.0000 0.0000 0.0000 0.0000 0.0000 0.0000 0.0000 0.0000 -0.0000 0.0000 0.0000 0.0000 0.0000 0.0000 0.0000 0.0000 0.0000 0.0000 0.0000 0.0000 -0.3951 1.0390 1.1073 1.1121 1.0292 1.1024 1.0585 0.9707 0.9365 0.9365 0.9756 1.0048 -0.3951 1.0390 1.1073 1.1121 1.0292 1.1024 1.0585 0.9707 0.9365 0.9365 0.9756 1.0048 -1.1853 3.1169 3.3218 3.3364 3.0876 3.3071 3.1754 2.9120 2.8096 2.8096 2.9267 3.0145 -0.0000 0.0000 0.0000 0.0000 0.0000 0.0000 0.0000 0.0000 0.0000 0.0000 0.0000 0.0000 -0.0000 0.0000 0.0000 0.0000 0.0000 0.0000 0.0000 0.0000 0.0000 0.0000 0.0000 0.0000 -0.7902 2.0779 2.2145 2.2243 2.0584 2.2048 2.1170 1.9414 1.8731 1.8731 1.9511 2.0096 -0.0000 0.0000 0.0000 0.0000 0.0000 0.0000 0.0000 0.0000 0.0000 0.0000 0.0000 0.0000 )

new loadshape.eletroposto13 npts=144 minterval=10
~ Pmult=(0.0000 0.0000 0.0000 0.0000 0.0000 0.0000 0.0000 0.0000 0.0000 0.0000 0.0000 0.0000 0.0000 0.0000 0.0000 0.0000 0.0000 0.0000 0.0000 0.0000 0.0000 0.0000 0.0000 0.0000 0.0000 0.0000 0.0000 0.0000 0.0000 0.0000 0.0000 0.0000 0.0000 0.0000 0.0000 0.0000 0.0000 0.0000 0.0000 0.0000 0.0000 0.0000 0.0000 0.0000 0.0000 0.0000 0.0000 0.0000 0.0000 0.0000 0.0000 0.0000 0.0000 0.0000 0.0000 0.0000 0.0000 0.0000 0.0000 0.0000 0.0000 0.0000 0.0000 0.0000 0.0000 0.0000 0.0000 0.0000 0.0000 0.0000 0.0000 0.0000 0.0000 0.0000 0.0000 0.0000 0.0000 0.0000 0.0000 0.0000 0.0000 0.0000 0.0000 0.0000 3.0405 3.0428 3.0565 3.0565 3.0680 3.0520 3.0668 3.0428 3.0359 3.0314 3.0348 3.0314 1.0135 1.0143 1.0188 1.0188 1.0227 1.0173 1.0223 1.0143 1.0120 1.0105 1.0116 1.0105 0.0000 0.0000 0.0000 0.0000 0.0000 0.0000 0.0000 0.0000 0.0000 0.0000 0.0000 0.0000 0.0000 0.0000 0.0000 0.0000 0.0000 0.0000 0.0000 0.0000 0.0000 0.0000 0.0000 0.0000 0.0000 0.0000 0.0000 0.0000 0.0000 0.0000 0.0000 0.0000 0.0000 0.0000 0.0000 0.0000 )
~ Qmult=(-0.0000 0.0000 0.0000 0.0000 0.0000 0.0000 0.0000 0.0000 0.0000 0.0000 0.0000 0.0000 -0.0000 0.0000 0.0000 0.0000 0.0000 0.0000 0.0000 0.0000 0.0000 0.0000 0.0000 0.0000 -0.0000 0.0000 0.0000 0.0000 0.0000 0.0000 0.0000 0.0000 0.0000 0.0000 0.0000 0.0000 -0.0000 0.0000 0.0000 0.0000 0.0000 0.0000 0.0000 0.0000 0.0000 0.0000 0.0000 0.0000 -0.0000 0.0000 0.0000 0.0000 0.0000 0.0000 0.0000 0.0000 0.0000 0.0000 0.0000 0.0000 -0.0000 0.0000 0.0000 0.0000 0.0000 0.0000 0.0000 0.0000 0.0000 0.0000 0.0000 0.0000 -0.0000 0.0000 0.0000 0.0000 0.0000 0.0000 0.0000 0.0000 0.0000 0.0000 0.0000 0.0000 -1.1853 3.1169 3.3218 3.3364 3.0876 3.3071 3.1754 2.9120 2.8096 2.8096 2.9267 3.0145 -0.3951 1.0390 1.1073 1.1121 1.0292 1.1024 1.0585 0.9707 0.9365 0.9365 0.9756 1.0048 -0.0000 0.0000 0.0000 0.0000 0.0000 0.0000 0.0000 0.0000 0.0000 0.0000 0.0000 0.0000 -0.0000 0.0000 0.0000 0.0000 0.0000 0.0000 0.0000 0.0000 0.0000 0.0000 0.0000 0.0000 -0.0000 0.0000 0.0000 0.0000 0.0000 0.0000 0.0000 0.0000 0.0000 0.0000 0.0000 0.0000 )

new loadshape.eletroposto14 npts=144 minterval=10
~ Pmult=(0.0000 0.0000 0.0000 0.0000 0.0000 0.0000 0.0000 0.0000 0.0000 0.0000 0.0000 0.0000 0.0000 0.0000 0.0000 0.0000 0.0000 0.0000 0.0000 0.0000 0.0000 0.0000 0.0000 0.0000 0.0000 0.0000 0.0000 0.0000 0.0000 0.0000 0.0000 0.0000 0.0000 0.0000 0.0000 0.0000 0.0000 0.0000 0.0000 0.0000 0.0000 0.0000 0.0000 0.0000 0.0000 0.0000 0.0000 0.0000 0.0000 0.0000 0.0000 0.0000 0.0000 0.0000 0.0000 0.0000 0.0000 0.0000 0.0000 0.0000 4.0540 4.0571 4.0754 4.0754 4.0906 4.0693 4.0891 4.0571 4.0479 4.0418 4.0464 4.0418 0.0000 0.0000 0.0000 0.0000 0.0000 0.0000 0.0000 0.0000 0.0000 0.0000 0.0000 0.0000 2.0270 2.0285 2.0377 2.0377 2.0453 2.0346 2.0446 2.0285 2.0240 2.0209 2.0232 2.0209 2.0270 2.0285 2.0377 2.0377 2.0453 2.0346 2.0446 2.0285 2.0240 2.0209 2.0232 2.0209 1.0135 1.0143 1.0188 1.0188 1.0227 1.0173 1.0223 1.0143 1.0120 1.0105 1.0116 1.0105 1.0135 1.0143 1.0188 1.0188 1.0227 1.0173 1.0223 1.0143 1.0120 1.0105 1.0116 1.0105 1.0135 1.0143 1.0188 1.0188 1.0227 1.0173 1.0223 1.0143 1.0120 1.0105 1.0116 1.0105 )
~ Qmult=(-0.0000 0.0000 0.0000 0.0000 0.0000 0.0000 0.0000 0.0000 0.0000 0.0000 0.0000 0.0000 -0.0000 0.0000 0.0000 0.0000 0.0000 0.0000 0.0000 0.0000 0.0000 0.0000 0.0000 0.0000 -0.0000 0.0000 0.0000 0.0000 0.0000 0.0000 0.0000 0.0000 0.0000 0.0000 0.0000 0.0000 -0.0000 0.0000 0.0000 0.0000 0.0000 0.0000 0.0000 0.0000 0.0000 0.0000 0.0000 0.0000 -0.0000 0.0000 0.0000 0.0000 0.0000 0.0000 0.0000 0.0000 0.0000 0.0000 0.0000 0.0000 -1.5804 4.1559 4.4290 4.4485 4.1169 4.4095 4.2339 3.8827 3.7461 3.7461 3.9022 4.0193 -0.0000 0.0000 0.0000 0.0000 0.0000 0.0000 0.0000 0.0000 0.0000 0.0000 0.0000 0.0000 -0.7902 2.0779 2.2145 2.2243 2.0584 2.2048 2.1170 1.9414 1.8731 1.8731 1.9511 2.0096 -0.7902 2.0779 2.2145 2.2243 2.0584 2.2048 2.1170 1.9414 1.8731 1.8731 1.9511 2.0096 -0.3951 1.0390 1.1073 1.1121 1.0292 1.1024 1.0585 0.9707 0.9365 0.9365 0.9756 1.0048 -0.3951 1.0390 1.1073 1.1121 1.0292 1.1024 1.0585 0.9707 0.9365 0.9365 0.9756 1.0048 -0.3951 1.0390 1.1073 1.1121 1.0292 1.1024 1.0585 0.9707 0.9365 0.9365 0.9756 1.0048 )

new loadshape.eletroposto15 npts=144 minterval=10